****** HSPICE -- L-2016.06-SP2-2 linux64 (Jan 24 2017) ******
 Input File: MandS05_tb.sp
 lic:
 lic: FLEXlm: v11.2.1
 lic: USER:   lxy59                HOSTNAME: r920
 lic: HOSTID: "1418774cf8bf"       PID:      60132
 lic: Using FLEXlm license file:
 lic: 1701@192.9.201.150
 lic: Checkout 1 hspice
 lic: License/Maintenance for hspice will expire on 21-mar-2024/2020.12
 lic: 1(in_use)/60(total) FLOATING license(s) on SERVER 1701@192.9.201.150
 lic:
 init: begin read circuit files,  cpu clock=  7.60E-01
       option search = /soft1/synopsys/hspice_2016.06-SP2/hspice/parts/
                         ad
       option runlvl
       option list
       option node
       option post =     2.00
       option probe
       option gmindc =    1.000E-14
       option scale =    0.900
 init: end read circuit files,  cpu clock=  7.90E-01 peak memory=       194 mb
 init: begin check errors,  cpu clock=  7.90E-01
 init: end check errors,  cpu clock=  1.68E+00 peak memory=       213 mb
 init: begin setup matrix, pivot=     0 cpu clock=  1.68E+00
       establish matrix -- done,  cpu clock=  1.69E+00 peak memory=       213 mb
       re-order matrix -- done,  cpu clock=  1.80E+00 peak memory=       219 mb
 init: end setup matrix,  cpu clock=  1.80E+00 peak memory=       221 mb
 dcop: begin dcop,  cpu clock=  1.83E+00
 dcop: end dcop,  cpu clock=  3.69E+00 peak memory=       221 mb  tot_iter=     155
 output: MandS05_tb.mt0
 sweep: tran tran0    begin, stop_t=  2.97E-04 #sweeps=**** cpu clock=  3.69E+00
 tran: time= 2.9688E-05 tot_iter=    6783 conv_iter=    2192 cpu clock= 2.78E+01
 tran: time= 5.9375E-05 tot_iter=   14166 conv_iter=    4559 cpu clock= 5.30E+01
 tran: time= 8.9063E-05 tot_iter=   18625 conv_iter=    6094 cpu clock= 7.00E+01
 tran: time= 1.1875E-04 tot_iter=   26043 conv_iter=    8429 cpu clock= 9.84E+01
 tran: time= 1.4844E-04 tot_iter=   31687 conv_iter=   10297 cpu clock= 1.18E+02
 tran: time= 1.7813E-04 tot_iter=   39288 conv_iter=   12707 cpu clock= 1.48E+02
 tran: time= 2.0781E-04 tot_iter=   44063 conv_iter=   14310 cpu clock= 1.65E+02
 tran: time= 2.3750E-04 tot_iter=   46140 conv_iter=   15098 cpu clock= 1.72E+02
 tran: time= 2.6719E-04 tot_iter=   48224 conv_iter=   15887 cpu clock= 1.80E+02
 sweep: tran tran0    end,  cpu clock=  1.87E+02 peak memory=       221 mb
>info:         ***** hspice job concluded
 init: begin read circuit files,  cpu clock=  1.87E+02
       option search = /soft1/synopsys/hspice_2016.06-SP2/hspice/parts/
                         ad
       option runlvl
       option list
       option node
       option post =     2.00
       option probe
       option gmindc =    1.000E-14
       option scale =    0.900
 init: end read circuit files,  cpu clock=  1.87E+02 peak memory=       218 mb
 init: begin check errors,  cpu clock=  1.87E+02
 init: end check errors,  cpu clock=  1.88E+02 peak memory=       221 mb
 init: begin setup matrix, pivot=     0 cpu clock=  1.88E+02
       establish matrix -- done,  cpu clock=  1.88E+02 peak memory=       221 mb
       re-order matrix -- done,  cpu clock=  1.88E+02 peak memory=       221 mb
 init: end setup matrix,  cpu clock=  1.88E+02 peak memory=       221 mb
 dcop: begin dcop,  cpu clock=  1.88E+02
 dcop: end dcop,  cpu clock=  1.90E+02 peak memory=       221 mb  tot_iter=     234
 output: MandS05_tb.mt1
 sweep: tran tran0    begin, stop_t=  2.97E-04 #sweeps=**** cpu clock=  1.90E+02
 tran: time= 2.9688E-05 tot_iter=    8255 conv_iter=    2278 cpu clock= 2.13E+02
 tran: time= 5.9375E-05 tot_iter=   18373 conv_iter=    5001 cpu clock= 2.41E+02
 tran: time= 8.9063E-05 tot_iter=   23689 conv_iter=    6573 cpu clock= 2.57E+02
 tran: time= 1.1875E-04 tot_iter=   33749 conv_iter=    9260 cpu clock= 2.88E+02
 tran: time= 1.4844E-04 tot_iter=   41207 conv_iter=   11343 cpu clock= 3.09E+02
 tran: time= 1.7813E-04 tot_iter=   51587 conv_iter=   14134 cpu clock= 3.41E+02
 tran: time= 2.0781E-04 tot_iter=   57935 conv_iter=   15953 cpu clock= 3.60E+02
 tran: time= 2.3750E-04 tot_iter=   60004 conv_iter=   16694 cpu clock= 3.67E+02
 tran: time= 2.6719E-04 tot_iter=   62077 conv_iter=   17435 cpu clock= 3.73E+02
 sweep: tran tran0    end,  cpu clock=  3.80E+02 peak memory=       221 mb
>info:         ***** hspice job concluded
 init: begin read circuit files,  cpu clock=  3.80E+02
       option search = /soft1/synopsys/hspice_2016.06-SP2/hspice/parts/
                         ad
       option runlvl
       option list
       option node
       option post =     2.00
       option probe
       option gmindc =    1.000E-14
       option scale =    0.900
 init: end read circuit files,  cpu clock=  3.80E+02 peak memory=       218 mb
 init: begin check errors,  cpu clock=  3.80E+02
 init: end check errors,  cpu clock=  3.81E+02 peak memory=       221 mb
 init: begin setup matrix, pivot=     0 cpu clock=  3.81E+02
       establish matrix -- done,  cpu clock=  3.81E+02 peak memory=       221 mb
       re-order matrix -- done,  cpu clock=  3.81E+02 peak memory=       221 mb
 init: end setup matrix,  cpu clock=  3.81E+02 peak memory=       221 mb
 dcop: begin dcop,  cpu clock=  3.81E+02
 dcop: begin pseudo transient
 dcop: end pseudo transient
 dcop: end dcop,  cpu clock=  3.97E+02 peak memory=       221 mb  tot_iter=    1782
 output: MandS05_tb.mt2
 sweep: tran tran0    begin, stop_t=  2.97E-04 #sweeps=**** cpu clock=  3.97E+02
 tran: time= 2.9688E-05 tot_iter=    8618 conv_iter=    2361 cpu clock= 4.23E+02
 tran: time= 5.9375E-05 tot_iter=   18527 conv_iter=    5054 cpu clock= 4.51E+02
 tran: time= 8.9063E-05 tot_iter=   23881 conv_iter=    6648 cpu clock= 4.69E+02
 tran: time= 1.1875E-04 tot_iter=   33789 conv_iter=    9313 cpu clock= 5.00E+02
 tran: time= 1.4844E-04 tot_iter=   41091 conv_iter=   11384 cpu clock= 5.22E+02
 tran: time= 1.7813E-04 tot_iter=   51304 conv_iter=   14145 cpu clock= 5.55E+02
 tran: time= 2.0781E-04 tot_iter=   57520 conv_iter=   15945 cpu clock= 5.74E+02
 tran: time= 2.3750E-04 tot_iter=   59627 conv_iter=   16699 cpu clock= 5.81E+02
 tran: time= 2.6719E-04 tot_iter=   61719 conv_iter=   17446 cpu clock= 5.88E+02
 sweep: tran tran0    end,  cpu clock=  5.96E+02 peak memory=       221 mb
>info:         ***** hspice job concluded
 init: begin read circuit files,  cpu clock=  5.96E+02
       option search = /soft1/synopsys/hspice_2016.06-SP2/hspice/parts/
                         ad
       option runlvl
       option list
       option node
       option post =     2.00
       option probe
       option gmindc =    1.000E-14
       option scale =    0.900
 init: end read circuit files,  cpu clock=  5.96E+02 peak memory=       218 mb
 init: begin check errors,  cpu clock=  5.96E+02
 init: end check errors,  cpu clock=  5.96E+02 peak memory=       221 mb
 init: begin setup matrix, pivot=     0 cpu clock=  5.96E+02
       establish matrix -- done,  cpu clock=  5.96E+02 peak memory=       221 mb
       re-order matrix -- done,  cpu clock=  5.96E+02 peak memory=       221 mb
 init: end setup matrix,  cpu clock=  5.96E+02 peak memory=       221 mb
 dcop: begin dcop,  cpu clock=  5.96E+02
 dcop: end dcop,  cpu clock=  5.99E+02 peak memory=       221 mb  tot_iter=     306
 output: MandS05_tb.mt3
 sweep: tran tran0    begin, stop_t=  2.97E-04 #sweeps=**** cpu clock=  5.99E+02
 tran: time= 2.9688E-05 tot_iter=    8388 conv_iter=    2310 cpu clock= 6.24E+02
 tran: time= 5.9375E-05 tot_iter=   18135 conv_iter=    4943 cpu clock= 6.52E+02
 tran: time= 8.9063E-05 tot_iter=   23416 conv_iter=    6528 cpu clock= 6.69E+02
 tran: time= 1.1875E-04 tot_iter=   33013 conv_iter=    9114 cpu clock= 6.99E+02
 tran: time= 1.4844E-04 tot_iter=   40149 conv_iter=   11123 cpu clock= 7.20E+02
 tran: time= 1.7813E-04 tot_iter=   50023 conv_iter=   13765 cpu clock= 7.50E+02
 tran: time= 2.0781E-04 tot_iter=   56111 conv_iter=   15505 cpu clock= 7.68E+02
 tran: time= 2.3750E-04 tot_iter=   58325 conv_iter=   16288 cpu clock= 7.76E+02
 tran: time= 2.6719E-04 tot_iter=   60519 conv_iter=   17063 cpu clock= 7.83E+02
 sweep: tran tran0    end,  cpu clock=  7.91E+02 peak memory=       221 mb
>info:         ***** hspice job concluded
 init: begin read circuit files,  cpu clock=  7.91E+02
       option search = /soft1/synopsys/hspice_2016.06-SP2/hspice/parts/
                         ad
       option runlvl
       option list
       option node
       option post =     2.00
       option probe
       option gmindc =    1.000E-14
       option scale =    0.900
 init: end read circuit files,  cpu clock=  7.91E+02 peak memory=       218 mb
 init: begin check errors,  cpu clock=  7.91E+02
 init: end check errors,  cpu clock=  7.91E+02 peak memory=       221 mb
 init: begin setup matrix, pivot=     0 cpu clock=  7.91E+02
       establish matrix -- done,  cpu clock=  7.91E+02 peak memory=       221 mb
       re-order matrix -- done,  cpu clock=  7.91E+02 peak memory=       221 mb
 init: end setup matrix,  cpu clock=  7.91E+02 peak memory=       221 mb
 dcop: begin dcop,  cpu clock=  7.91E+02
 dcop: end dcop,  cpu clock=  7.92E+02 peak memory=       221 mb  tot_iter=     137
 output: MandS05_tb.mt4
 sweep: tran tran0    begin, stop_t=  2.97E-04 #sweeps=**** cpu clock=  7.92E+02
 tran: time= 2.9688E-05 tot_iter=    7259 conv_iter=    2029 cpu clock= 8.14E+02
 tran: time= 5.9375E-05 tot_iter=   16380 conv_iter=    4508 cpu clock= 8.40E+02
 tran: time= 8.9063E-05 tot_iter=   21320 conv_iter=    5993 cpu clock= 8.55E+02
 tran: time= 1.1875E-04 tot_iter=   30338 conv_iter=    8439 cpu clock= 8.84E+02
 tran: time= 1.4844E-04 tot_iter=   37044 conv_iter=   10321 cpu clock= 9.04E+02
 tran: time= 1.7813E-04 tot_iter=   46339 conv_iter=   12817 cpu clock= 9.33E+02
 tran: time= 2.0781E-04 tot_iter=   52180 conv_iter=   14499 cpu clock= 9.51E+02
 tran: time= 2.3750E-04 tot_iter=   54213 conv_iter=   15231 cpu clock= 9.58E+02
 tran: time= 2.6719E-04 tot_iter=   56246 conv_iter=   15962 cpu clock= 9.65E+02
 sweep: tran tran0    end,  cpu clock=  9.72E+02 peak memory=       221 mb
>info:         ***** hspice job concluded
 init: begin read circuit files,  cpu clock=  9.72E+02
       option search = /soft1/synopsys/hspice_2016.06-SP2/hspice/parts/
                         ad
       option runlvl
       option list
       option node
       option post =     2.00
       option probe
       option gmindc =    1.000E-14
       option scale =    0.900
 init: end read circuit files,  cpu clock=  9.72E+02 peak memory=       218 mb
 init: begin check errors,  cpu clock=  9.72E+02
 init: end check errors,  cpu clock=  9.72E+02 peak memory=       221 mb
 init: begin setup matrix, pivot=     0 cpu clock=  9.72E+02
       establish matrix -- done,  cpu clock=  9.72E+02 peak memory=       221 mb
       re-order matrix -- done,  cpu clock=  9.72E+02 peak memory=       221 mb
 init: end setup matrix,  cpu clock=  9.72E+02 peak memory=       221 mb
 dcop: begin dcop,  cpu clock=  9.72E+02
 dcop: begin pseudo transient
 dcop: end pseudo transient
 dcop: end dcop,  cpu clock=  9.87E+02 peak memory=       221 mb  tot_iter=    1511
 output: MandS05_tb.mt5
 sweep: tran tran0    begin, stop_t=  2.97E-04 #sweeps=**** cpu clock=  9.87E+02
 tran: time= 2.9688E-05 tot_iter=    5947 conv_iter=    1699 cpu clock= 1.01E+03
 tran: time= 5.9375E-05 tot_iter=   13078 conv_iter=    3666 cpu clock= 1.03E+03
 tran: time= 8.9063E-05 tot_iter=   17788 conv_iter=    5099 cpu clock= 1.05E+03
 tran: time= 1.1875E-04 tot_iter=   24977 conv_iter=    7076 cpu clock= 1.07E+03
 tran: time= 1.4844E-04 tot_iter=   30692 conv_iter=    8729 cpu clock= 1.09E+03
 tran: time= 1.7813E-04 tot_iter=   37731 conv_iter=   10694 cpu clock= 1.12E+03
 tran: time= 2.0781E-04 tot_iter=   42529 conv_iter=   12111 cpu clock= 1.13E+03
 tran: time= 2.3750E-04 tot_iter=   44495 conv_iter=   12827 cpu clock= 1.14E+03
 tran: time= 2.6719E-04 tot_iter=   46443 conv_iter=   13536 cpu clock= 1.14E+03
 sweep: tran tran0    end,  cpu clock=  1.15E+03 peak memory=       221 mb
>info:         ***** hspice job concluded
 init: begin read circuit files,  cpu clock=  1.15E+03
       option search = /soft1/synopsys/hspice_2016.06-SP2/hspice/parts/
                         ad
       option runlvl
       option list
       option node
       option post =     2.00
       option probe
       option gmindc =    1.000E-14
       option scale =    0.900
 init: end read circuit files,  cpu clock=  1.15E+03 peak memory=       218 mb
 init: begin check errors,  cpu clock=  1.15E+03
 init: end check errors,  cpu clock=  1.15E+03 peak memory=       221 mb
 init: begin setup matrix, pivot=     0 cpu clock=  1.15E+03
       establish matrix -- done,  cpu clock=  1.15E+03 peak memory=       221 mb
       re-order matrix -- done,  cpu clock=  1.15E+03 peak memory=       221 mb
 init: end setup matrix,  cpu clock=  1.15E+03 peak memory=       221 mb
 dcop: begin dcop,  cpu clock=  1.15E+03
 dcop: end dcop,  cpu clock=  1.15E+03 peak memory=       221 mb  tot_iter=     174
 output: MandS05_tb.mt6
 sweep: tran tran0    begin, stop_t=  2.97E-04 #sweeps=**** cpu clock=  1.15E+03
 tran: time= 2.9688E-05 tot_iter=    3898 conv_iter=    1199 cpu clock= 1.17E+03
 tran: time= 5.9375E-05 tot_iter=    8400 conv_iter=    2524 cpu clock= 1.18E+03
 tran: time= 8.9063E-05 tot_iter=   12173 conv_iter=    3711 cpu clock= 1.20E+03
 tran: time= 1.1875E-04 tot_iter=   16770 conv_iter=    5053 cpu clock= 1.21E+03
 tran: time= 1.4844E-04 tot_iter=   20890 conv_iter=    6308 cpu clock= 1.23E+03
 tran: time= 1.7813E-04 tot_iter=   25470 conv_iter=    7647 cpu clock= 1.24E+03
 tran: time= 2.0781E-04 tot_iter=   29181 conv_iter=    8792 cpu clock= 1.26E+03
 tran: time= 2.3750E-04 tot_iter=   31166 conv_iter=    9524 cpu clock= 1.26E+03
 tran: time= 2.6719E-04 tot_iter=   33152 conv_iter=   10255 cpu clock= 1.27E+03
 sweep: tran tran0    end,  cpu clock=  1.28E+03 peak memory=       221 mb
>info:         ***** hspice job concluded
 init: begin read circuit files,  cpu clock=  1.28E+03
       option search = /soft1/synopsys/hspice_2016.06-SP2/hspice/parts/
                         ad
       option runlvl
       option list
       option node
       option post =     2.00
       option probe
       option gmindc =    1.000E-14
       option scale =    0.900
 init: end read circuit files,  cpu clock=  1.28E+03 peak memory=       218 mb
 init: begin check errors,  cpu clock=  1.28E+03
 init: end check errors,  cpu clock=  1.28E+03 peak memory=       221 mb
 init: begin setup matrix, pivot=     0 cpu clock=  1.28E+03
       establish matrix -- done,  cpu clock=  1.28E+03 peak memory=       221 mb
       re-order matrix -- done,  cpu clock=  1.28E+03 peak memory=       221 mb
 init: end setup matrix,  cpu clock=  1.28E+03 peak memory=       221 mb
 dcop: begin dcop,  cpu clock=  1.28E+03
 dcop: end dcop,  cpu clock=  1.28E+03 peak memory=       221 mb  tot_iter=     588
 output: MandS05_tb.mt7
 sweep: tran tran0    begin, stop_t=  2.97E-04 #sweeps=**** cpu clock=  1.28E+03
 tran: time= 2.9688E-05 tot_iter=    2630 conv_iter=     911 cpu clock= 1.29E+03
 tran: time= 5.9375E-05 tot_iter=    5723 conv_iter=    1911 cpu clock= 1.30E+03
 tran: time= 8.9063E-05 tot_iter=    8553 conv_iter=    2870 cpu clock= 1.31E+03
 tran: time= 1.1875E-04 tot_iter=   11580 conv_iter=    3857 cpu clock= 1.33E+03
 tran: time= 1.4844E-04 tot_iter=   14540 conv_iter=    4838 cpu clock= 1.34E+03
 tran: time= 1.7813E-04 tot_iter=   17583 conv_iter=    5837 cpu clock= 1.35E+03
 tran: time= 2.0781E-04 tot_iter=   20238 conv_iter=    6733 cpu clock= 1.36E+03
 tran: time= 2.3750E-04 tot_iter=   22144 conv_iter=    7435 cpu clock= 1.37E+03
 tran: time= 2.6719E-04 tot_iter=   24057 conv_iter=    8139 cpu clock= 1.37E+03
 sweep: tran tran0    end,  cpu clock=  1.38E+03 peak memory=       221 mb
>info:         ***** hspice job concluded
 init: begin read circuit files,  cpu clock=  1.38E+03
       option search = /soft1/synopsys/hspice_2016.06-SP2/hspice/parts/
                         ad
       option runlvl
       option list
       option node
       option post =     2.00
       option probe
       option gmindc =    1.000E-14
       option scale =    0.900
 init: end read circuit files,  cpu clock=  1.38E+03 peak memory=       218 mb
 init: begin check errors,  cpu clock=  1.38E+03
 init: end check errors,  cpu clock=  1.38E+03 peak memory=       221 mb
 init: begin setup matrix, pivot=     0 cpu clock=  1.38E+03
       establish matrix -- done,  cpu clock=  1.38E+03 peak memory=       221 mb
       re-order matrix -- done,  cpu clock=  1.38E+03 peak memory=       221 mb
 init: end setup matrix,  cpu clock=  1.38E+03 peak memory=       221 mb
 dcop: begin dcop,  cpu clock=  1.38E+03
 dcop: end dcop,  cpu clock=  1.38E+03 peak memory=       221 mb  tot_iter=     167
 output: MandS05_tb.mt8
 sweep: tran tran0    begin, stop_t=  1.19E-07 #sweeps= 120 cpu clock=  1.38E+03
 tran: time= 1.1877E-08 tot_iter=    4855 conv_iter=    1536 cpu clock= 1.40E+03
 tran: time= 2.3750E-08 tot_iter=   10459 conv_iter=    3248 cpu clock= 1.42E+03
 tran: time= 3.5625E-08 tot_iter=   14022 conv_iter=    4431 cpu clock= 1.44E+03
 tran: time= 4.7500E-08 tot_iter=   19687 conv_iter=    6162 cpu clock= 1.46E+03
 tran: time= 5.9375E-08 tot_iter=   24026 conv_iter=    7541 cpu clock= 1.48E+03
 tran: time= 7.1250E-08 tot_iter=   29934 conv_iter=    9341 cpu clock= 1.51E+03
 tran: time= 8.3125E-08 tot_iter=   33874 conv_iter=   10611 cpu clock= 1.52E+03
 tran: time= 9.5000E-08 tot_iter=   35665 conv_iter=   11274 cpu clock= 1.53E+03
 tran: time= 1.0688E-07 tot_iter=   37465 conv_iter=   11941 cpu clock= 1.54E+03
 tran: time= 1.1875E-07 tot_iter=   39259 conv_iter=   12605 cpu clock= 1.55E+03
 sweep: tran tran0    end,  cpu clock=  1.55E+03 peak memory=       221 mb
>info:         ***** hspice job concluded
 init: begin read circuit files,  cpu clock=  1.55E+03
       option search = /soft1/synopsys/hspice_2016.06-SP2/hspice/parts/
                         ad
       option runlvl
       option list
       option node
       option post =     2.00
       option probe
       option gmindc =    1.000E-14
       option scale =    0.900
 init: end read circuit files,  cpu clock=  1.55E+03 peak memory=       218 mb
 init: begin check errors,  cpu clock=  1.55E+03
 init: end check errors,  cpu clock=  1.55E+03 peak memory=       221 mb
 init: begin setup matrix, pivot=     0 cpu clock=  1.55E+03
       establish matrix -- done,  cpu clock=  1.55E+03 peak memory=       221 mb
       re-order matrix -- done,  cpu clock=  1.55E+03 peak memory=       221 mb
 init: end setup matrix,  cpu clock=  1.55E+03 peak memory=       221 mb
 dcop: begin dcop,  cpu clock=  1.55E+03
 dcop: end dcop,  cpu clock=  1.55E+03 peak memory=       221 mb  tot_iter=     169
 output: MandS05_tb.mt9
 sweep: tran tran0    begin, stop_t=  1.19E-07 #sweeps= 120 cpu clock=  1.55E+03
 tran: time= 1.1877E-08 tot_iter=    5011 conv_iter=    1576 cpu clock= 1.57E+03
 tran: time= 2.3750E-08 tot_iter=   10810 conv_iter=    3354 cpu clock= 1.59E+03
 tran: time= 3.5625E-08 tot_iter=   14428 conv_iter=    4555 cpu clock= 1.61E+03
 tran: time= 4.7500E-08 tot_iter=   20318 conv_iter=    6356 cpu clock= 1.63E+03
 tran: time= 5.9375E-08 tot_iter=   24886 conv_iter=    7812 cpu clock= 1.65E+03
 tran: time= 7.1250E-08 tot_iter=   30932 conv_iter=    9650 cpu clock= 1.68E+03
 tran: time= 8.3125E-08 tot_iter=   34983 conv_iter=   10961 cpu clock= 1.70E+03
 tran: time= 9.5000E-08 tot_iter=   36828 conv_iter=   11642 cpu clock= 1.70E+03
 tran: time= 1.0688E-07 tot_iter=   38688 conv_iter=   12329 cpu clock= 1.71E+03
 tran: time= 1.1875E-07 tot_iter=   40536 conv_iter=   13011 cpu clock= 1.72E+03
 sweep: tran tran0    end,  cpu clock=  1.72E+03 peak memory=       221 mb
>info:         ***** hspice job concluded
 init: begin read circuit files,  cpu clock=  1.72E+03
       option search = /soft1/synopsys/hspice_2016.06-SP2/hspice/parts/
                         ad
       option runlvl
       option list
       option node
       option post =     2.00
       option probe
       option gmindc =    1.000E-14
       option scale =    0.900
 init: end read circuit files,  cpu clock=  1.72E+03 peak memory=       213 mb
 init: begin check errors,  cpu clock=  1.72E+03
 init: end check errors,  cpu clock=  1.72E+03 peak memory=       216 mb
 init: begin setup matrix, pivot=     0 cpu clock=  1.72E+03
       establish matrix -- done,  cpu clock=  1.72E+03 peak memory=       216 mb
       re-order matrix -- done,  cpu clock=  1.72E+03 peak memory=       216 mb
 init: end setup matrix,  cpu clock=  1.72E+03 peak memory=       216 mb
 dcop: begin dcop,  cpu clock=  1.72E+03
 dcop: end dcop,  cpu clock=  1.72E+03 peak memory=       216 mb  tot_iter=     159
 output: MandS05_tb.mt10
 sweep: tran tran0    begin, stop_t=  1.19E-07 #sweeps= 120 cpu clock=  1.72E+03
 tran: time= 1.1878E-08 tot_iter=    5008 conv_iter=    1577 cpu clock= 1.74E+03
 tran: time= 2.3750E-08 tot_iter=   10949 conv_iter=    3395 cpu clock= 1.77E+03
 tran: time= 3.5625E-08 tot_iter=   14690 conv_iter=    4638 cpu clock= 1.78E+03
 tran: time= 4.7500E-08 tot_iter=   20629 conv_iter=    6453 cpu clock= 1.81E+03
 tran: time= 5.9375E-08 tot_iter=   25306 conv_iter=    7939 cpu clock= 1.83E+03
 tran: time= 7.1250E-08 tot_iter=   31381 conv_iter=    9777 cpu clock= 1.85E+03
 tran: time= 8.3125E-08 tot_iter=   35402 conv_iter=   11068 cpu clock= 1.87E+03
 tran: time= 9.5000E-08 tot_iter=   37098 conv_iter=   11703 cpu clock= 1.88E+03
 tran: time= 1.0688E-07 tot_iter=   38803 conv_iter=   12341 cpu clock= 1.88E+03
 tran: time= 1.1875E-07 tot_iter=   40502 conv_iter=   12977 cpu clock= 1.89E+03
 sweep: tran tran0    end,  cpu clock=  1.89E+03 peak memory=       216 mb
>info:         ***** hspice job concluded
 lic: Release hspice token(s)
